
     RDKit          3D

 33 36  0  0  0  0  0  0  0  0999 V2000
    1.9860    6.9200   29.4810 F   0  0  0  0  0  0  0  0  0  0  0  0
    2.1020    7.0750   30.8070 C   0  0  1  0  0  0  0  0  0  0  0  0
    2.6090    6.0020   31.4070 F   0  0  0  0  0  0  0  0  0  0  0  0
    2.8920    8.0970   31.0400 F   0  0  0  0  0  0  0  0  0  0  0  0
    0.7020    7.4200   31.3110 C   0  0  0  0  0  0  0  0  0  0  0  0
    0.2000    6.7210   32.4080 C   0  0  0  0  0  0  0  0  0  0  0  0
   -1.0690    7.0120   32.8720 C   0  0  0  0  0  0  0  0  0  0  0  0
   -1.8170    8.0010   32.2420 C   0  0  0  0  0  0  0  0  0  0  0  0
   -1.3190    8.7010   31.1530 C   0  0  0  0  0  0  0  0  0  0  0  0
   -0.0450    8.4120   30.6790 C   0  0  0  0  0  0  0  0  0  0  0  0
    0.4590    9.1940   29.4640 C   0  0  0  0  0  0  0  0  0  0  0  0
    0.0320   10.6050   29.4640 N   0  0  0  0  0  0  0  0  0  0  0  0
    0.6560   11.5940   30.1310 C   0  0  0  0  0  0  0  0  0  0  0  0
    1.7710   11.6090   30.9700 C   0  0  0  0  0  0  0  0  0  0  0  0
    2.1990   12.8200   31.5460 C   0  0  0  0  0  0  0  0  0  0  0  0
    1.5070   14.0030   31.2710 C   0  0  0  0  0  0  0  0  0  0  0  0
    1.9720   15.3280   31.9080 C   0  0  0  0  0  0  0  0  0  0  0  0
    1.2140   16.3220   31.9250 O   0  0  0  0  0  0  0  0  0  0  0  0
    3.1030   15.4050   32.4260 O   0  0  0  0  0  0  0  0  0  0  0  0
    0.3840   13.9760   30.4340 C   0  0  0  0  0  0  0  0  0  0  0  0
   -0.0370   12.7700   29.8670 C   0  0  0  0  0  0  0  0  0  0  0  0
   -1.0320   12.4500   29.0380 N   0  0  0  0  0  0  0  0  0  0  0  0
   -1.0040   11.1250   28.7870 C   0  0  0  0  0  0  0  0  0  0  0  0
   -1.8740   10.4930   27.9940 N   0  0  0  0  0  0  0  0  0  0  0  0
   -3.0530   11.0090   27.5870 C   0  0  0  0  0  0  0  0  0  0  0  0
   -3.9540   11.5420   28.5070 C   0  0  0  0  0  0  0  0  0  0  0  0
   -5.1690   12.0600   28.0560 C   0  0  0  0  0  0  0  0  0  0  0  0
   -6.0470   12.5610   28.9520 F   0  0  0  0  0  0  0  0  0  0  0  0
   -5.5100   12.0530   26.6970 C   0  0  0  0  0  0  0  0  0  0  0  0
   -6.6990   12.5560   26.2140 O   0  0  0  0  0  0  0  0  0  0  0  0
   -7.8020   11.6690   26.5150 C   0  0  0  0  0  0  0  0  0  0  0  0
   -4.5970   11.5240   25.7810 C   0  0  0  0  0  0  0  0  0  0  0  0
   -3.3820   11.0080   26.2290 C   0  0  0  0  0  0  0  0  0  0  0  0
  2  1  1  6
  3  2  1  0
  4  2  1  0
  5  2  1  0
  6  5  1  0
  7  6  1  0
  8  7  1  0
  9  8  1  0
 10  9  1  0
 10  5  1  0
 11 10  1  0
 12 11  1  0
 13 12  1  0
 14 13  1  0
 15 14  1  0
 16 15  1  0
 17 16  1  0
 18 17  1  0
 19 17  1  0
 20 16  1  0
 21 20  1  0
 21 13  1  0
 22 21  1  0
 23 12  1  0
 23 22  1  0
 24 23  1  0
 25 24  1  0
 26 25  1  0
 27 26  1  0
 28 27  1  0
 29 27  1  0
 30 29  1  0
 31 30  1  0
 32 29  1  0
 33 32  1  0
 33 25  1  0
M  END
$$$$
