6HAX_ligand
 OpenBabel02232315263D

 66 73  0  0  1  0  0  0  0  0999 V2000
  -29.9540   13.1560  -32.8000 N   0  0  0  0  0  0  0  0  0  0  0  0
  -29.2860   13.7950  -31.6760 C   0  0  1  0  0  0  0  0  0  0  0  0
  -29.8830   15.2100  -31.3940 C   0  0  0  0  0  0  0  0  0  0  0  0
  -29.3650   12.8200  -30.4900 C   0  0  0  0  0  0  0  0  0  0  0  0
  -29.1810   15.8910  -30.2100 C   0  0  0  0  0  0  0  0  0  0  0  0
  -29.6950   16.0920  -32.6280 C   0  0  0  0  0  0  0  0  0  0  0  0
  -31.3900   15.1220  -31.0990 C   0  0  0  0  0  0  0  0  0  0  0  0
  -28.2590   12.5850  -29.7560 N   0  0  0  0  0  0  0  0  0  0  0  0
  -30.4210   12.2540  -30.2470 O   0  0  0  0  0  0  0  0  0  0  0  0
  -28.3370   11.6230  -28.6490 C   0  0  1  0  0  0  0  0  0  0  0  0
  -26.9190   11.6500  -28.0460 C   0  0  0  0  0  0  0  0  0  0  0  0
  -26.0330   12.1300  -29.1850 C   0  0  2  0  0  0  0  0  0  0  0  0
  -26.9130   13.1430  -29.9080 C   0  0  0  0  0  0  0  0  0  0  0  0
  -25.6600   11.0400  -30.0430 O   0  0  0  0  0  0  0  0  0  0  0  0
  -29.3680   12.0160  -27.5900 C   0  0  0  0  0  0  0  0  0  0  0  0
  -29.6290   13.2010  -27.3560 O   0  0  0  0  0  0  0  0  0  0  0  0
  -29.9370   10.9990  -26.9430 N   0  0  0  0  0  0  0  0  0  0  0  0
  -30.8390   11.1950  -25.8180 C   0  0  0  0  0  0  0  0  0  0  0  0
  -30.1090   11.1260  -24.5020 C   0  0  0  0  0  0  0  0  0  0  0  0
  -30.6490   11.7300  -23.3610 C   0  0  0  0  0  0  0  0  0  0  0  0
  -30.0040   11.6340  -22.1310 C   0  0  0  0  0  0  0  0  0  0  0  0
  -28.7970   10.9490  -22.0220 C   0  0  0  0  0  0  0  0  0  0  0  0
  -28.2500   10.3620  -23.1580 C   0  0  0  0  0  0  0  0  0  0  0  0
  -28.9060   10.4360  -24.3730 C   0  0  0  0  0  0  0  0  0  0  0  0
  -28.1380   10.7980  -20.7090 C   0  0  0  0  0  0  0  0  0  0  0  0
  -28.6020   10.2610  -19.5350 C   0  0  0  0  0  0  0  0  0  0  0  0
  -27.6830   10.2430  -18.5050 N   0  0  0  0  0  0  0  0  0  0  0  0
  -26.5380   10.6990  -18.9010 C   0  0  0  0  0  0  0  0  0  0  0  0
  -26.4590   11.2240  -20.5340 S   0  0  0  0  0  0  0  0  0  0  0  0
  -29.9780    9.7420  -19.2640 C   0  0  0  0  0  0  0  0  0  0  0  0
  -29.5130   12.7090  -33.9810 C   0  0  0  0  0  0  0  0  0  0  0  0
  -30.6000   12.1130  -34.9050 C   0  0  0  0  0  0  0  0  0  0  0  0
  -28.3430   12.7380  -34.3380 O   0  0  0  0  0  0  0  0  0  0  0  0
  -30.7530   12.4840  -36.3250 C   0  0  0  0  0  0  0  0  0  0  0  0
  -30.3560   11.0870  -35.9400 C   0  0  0  0  0  0  0  0  0  0  0  0
  -31.8470   12.3840  -23.5560 O   0  0  0  0  0  0  0  0  0  0  0  0
  -32.4750   13.0560  -22.4470 C   0  0  0  0  0  0  0  0  0  0  0  0
  -31.8680   14.4310  -22.2640 C   0  0  0  0  0  0  0  0  0  0  0  0
  -32.5970   18.2440  -26.6230 C   0  0  0  0  0  0  0  0  0  0  0  0
  -33.6390   17.7700  -27.5490 N   0  0  0  0  0  0  0  0  0  0  0  0
  -33.1900   17.8480  -28.9490 C   0  0  0  0  0  0  0  0  0  0  0  0
  -34.3770   17.7700  -29.9110 C   0  0  0  0  0  0  0  0  0  0  0  0
  -35.5160   17.0920  -29.2830 N   0  0  0  0  0  0  0  0  0  0  0  0
  -36.0340   17.8480  -28.1370 C   0  0  0  0  0  0  0  0  0  0  0  0
  -34.8940   18.5200  -27.3780 C   0  0  0  0  0  0  0  0  0  0  0  0
  -36.4440   16.4650  -30.1630 C   0  0  0  0  0  0  0  0  0  0  0  0
  -37.7420   16.9340  -30.3630 C   0  0  0  0  0  0  0  0  0  0  0  0
  -38.5560   16.2730  -31.2890 C   0  0  0  0  0  0  0  0  0  0  0  0
  -38.0960   15.2400  -32.0090 N   0  0  0  0  0  0  0  0  0  0  0  0
  -36.8560   14.7540  -31.8020 N   0  0  0  0  0  0  0  0  0  0  0  0
  -36.0340   15.3290  -30.9160 C   0  0  0  0  0  0  0  0  0  0  0  0
  -34.8450   14.7260  -30.7910 N   0  0  0  0  0  0  0  0  0  0  0  0
  -39.9360   16.7310  -31.6100 C   0  0  0  0  0  0  0  0  0  0  0  0
  -40.7630   16.0260  -32.5030 C   0  0  0  0  0  0  0  0  0  0  0  0
  -42.0780   16.4430  -32.7350 C   0  0  0  0  0  0  0  0  0  0  0  0
  -42.5770   17.5580  -32.0830 C   0  0  0  0  0  0  0  0  0  0  0  0
  -41.7990   18.2240  -31.1610 C   0  0  0  0  0  0  0  0  0  0  0  0
  -40.4890   17.8230  -30.9320 C   0  0  0  0  0  0  0  0  0  0  0  0
  -40.3100   14.9900  -33.2560 O   0  0  0  0  0  0  0  0  0  0  0  0
  -32.0770   15.3780  -23.4250 C   0  0  0  0  0  0  0  0  0  0  0  0
  -31.2510   15.3480  -24.5460 C   0  0  0  0  0  0  0  0  0  0  0  0
  -31.4110   16.2680  -25.5720 C   0  0  0  0  0  0  0  0  0  0  0  0
  -32.3570   17.2840  -25.4790 C   0  0  0  0  0  0  0  0  0  0  0  0
  -33.1800   17.3120  -24.3630 C   0  0  0  0  0  0  0  0  0  0  0  0
  -33.0250   16.3930  -23.3400 C   0  0  0  0  0  0  0  0  0  0  0  0
  -31.8160   11.9720  -34.2120 F   0  0  0  0  0  0  0  0  0  0  0  0
  1 31  1  0  0  0  0
  2  1  1  6  0  0  0
  2  3  1  0  0  0  0
  2  4  1  0  0  0  0
  3  5  1  0  0  0  0
  3  6  1  0  0  0  0
  3  7  1  0  0  0  0
  4  8  1  0  0  0  0
  4  9  2  0  0  0  0
  8 10  1  0  0  0  0
  8 13  1  0  0  0  0
 10 11  1  0  0  0  0
 10 15  1  1  0  0  0
 11 12  1  0  0  0  0
 12 14  1  6  0  0  0
 12 13  1  0  0  0  0
 15 16  2  0  0  0  0
 15 17  1  0  0  0  0
 17 18  1  0  0  0  0
 18 19  1  0  0  0  0
 19 20  2  0  0  0  0
 19 24  1  0  0  0  0
 20 21  1  0  0  0  0
 20 36  1  0  0  0  0
 21 22  2  0  0  0  0
 22 23  1  0  0  0  0
 22 25  1  0  0  0  0
 23 24  2  0  0  0  0
 25 29  1  0  0  0  0
 25 26  2  0  0  0  0
 26 27  1  0  0  0  0
 26 30  1  0  0  0  0
 27 28  2  0  0  0  0
 28 29  1  0  0  0  0
 31 32  1  0  0  0  0
 31 33  2  0  0  0  0
 32 34  1  0  0  0  0
 32 35  1  0  0  0  0
 32 66  1  0  0  0  0
 34 35  1  0  0  0  0
 36 37  1  0  0  0  0
 37 38  1  0  0  0  0
 38 60  1  0  0  0  0
 39 40  1  0  0  0  0
 39 63  1  0  0  0  0
 40 41  1  0  0  0  0
 40 45  1  0  0  0  0
 41 42  1  0  0  0  0
 42 43  1  0  0  0  0
 43 44  1  0  0  0  0
 43 46  1  0  0  0  0
 44 45  1  0  0  0  0
 46 47  2  0  0  0  0
 46 51  1  0  0  0  0
 47 48  1  0  0  0  0
 48 49  2  0  0  0  0
 48 53  1  0  0  0  0
 49 50  1  0  0  0  0
 50 51  2  0  0  0  0
 51 52  1  0  0  0  0
 53 54  2  0  0  0  0
 53 58  1  0  0  0  0
 54 55  1  0  0  0  0
 54 59  1  0  0  0  0
 55 56  2  0  0  0  0
 56 57  1  0  0  0  0
 57 58  2  0  0  0  0
 60 61  2  0  0  0  0
 60 65  1  0  0  0  0
 61 62  1  0  0  0  0
 62 63  2  0  0  0  0
 63 64  1  0  0  0  0
 64 65  2  0  0  0  0
M  END
$$$$
